#P B3LYP/3-21G CIS(Singlets,NStates=15) pop(full) force

FuranDFT

0   1
6        0.936245    -0.760121     0.020578
6       -0.336674    -1.095742     0.031018
8       -1.168240     0.015020    -0.036888
6       -0.316987     1.093283    -0.038850
6        0.953176     0.684474    -0.040354
1        1.830604     1.416615     0.041430
1       -0.847731     2.036664     0.026851
1       -0.822943    -2.091639    -0.040789
1        1.844717    -1.394254    -0.043283


