#P B3LYP/3-21G CIS(Singlets,NStates=15) pop(full) force

FuranDFT

0   1
6        0.935729    -0.747767    -0.009093
6       -0.359315    -1.090047     0.025316
8       -1.194027    -0.024511    -0.048899
6       -0.364510     1.053205    -0.006016
6        0.930998     0.721467    -0.020599
1        1.853896     1.319870     0.006451
1       -0.848899     2.036573    -0.019050
1       -0.851710    -2.077152     0.034686
1        1.817605    -1.375887    -0.040862


