#P B3LYP/3-21G CIS(Singlets,NStates=15) pop(full) force

FuranDFT

0   1
6        0.937801    -0.670502     0.018414
6       -0.382080    -1.099383     0.042363
8       -1.181176     0.009094    -0.037803
6       -0.382844     1.138661     0.029436
6        0.946562     0.693516    -0.011973
1        1.831397     1.333640    -0.045573
1       -0.801110     2.037452    -0.004420
1       -0.839015    -2.089578    -0.038198
1        1.760590    -1.383545    -0.040861


