#P B3LYP/3-21G CIS(Singlets,NStates=15) pop(full) force

FuranDFT

0   1
6        0.942933    -0.717648    -0.018785
6       -0.394170    -1.102515     0.046626
8       -1.206924    -0.014102     0.007182
6       -0.320508     1.053065    -0.035282
6        0.967938     0.720553     0.033679
1        1.790418     1.402801     0.028512
1       -0.800439     2.039772    -0.014174
1       -0.807545    -2.096595    -0.000425
1        1.838171    -1.359869    -0.013112


