#P B3LYP/3-21G CIS(Singlets,NStates=15) pop(full) force

FuranDFT

0   1
6        0.976610    -0.669271     0.020811
6       -0.303063    -1.072175     0.021323
8       -1.171044    -0.033103     0.024790
6       -0.344106     1.077260     0.003709
6        0.938358     0.718960    -0.025763
1        1.790798     1.405817     0.002676
1       -0.840737     2.004086    -0.036102
1       -0.881697    -2.095744    -0.014991
1        1.766238    -1.383213     0.020104


