#P B3LYP/3-21G CIS(Singlets,NStates=15) pop(full) force

FuranDFT

0   1
6        0.979829    -0.684975     0.047202
6       -0.395614    -1.110312     0.027079
8       -1.110911    -0.030286     0.013154
6       -0.300835     1.078798     0.048738
6        0.929100     0.682982    -0.017071
1        1.858894     1.387389     0.029531
1       -0.882226     2.032868    -0.018172
1       -0.795595    -2.012040     0.012487
1        1.766845    -1.326551     0.043085


