#P B3LYP/3-21G CIS(Singlets,NStates=15) pop(full) force

FuranDFT

0   1
6        0.959619    -0.757892    -0.047032
6       -0.326741    -1.060847     0.037537
8       -1.188279     0.025319    -0.024479
6       -0.339572     1.046986    -0.030843
6        0.924731     0.744158     0.013463
1        1.779597     1.373667    -0.011142
1       -0.828370     2.010150     0.014697
1       -0.812821    -2.080841    -0.001397
1        1.784273    -1.413072    -0.016157


