#P B3LYP/3-21G CIS(Singlets,NStates=15) pop(full) force

FuranDFT

0   1
6        0.991981    -0.678391    -0.034919
6       -0.297474    -1.105809     0.036716
8       -1.178054    -0.009394    -0.017674
6       -0.295931     1.097565     0.006137
6        0.997595     0.765092    -0.024925
1        1.781280     1.388101     0.019703
1       -0.833985     2.070033     0.001697
1       -0.815409    -2.026919    -0.020944
1        1.826721    -1.360028     0.028976


