#P B3LYP/3-21G CIS(Singlets,NStates=15) pop(full) force

FuranDFT

0   1
6        0.951593    -0.697989     0.015928
6       -0.330143    -1.051223     0.001926
8       -1.199616     0.033361     0.038212
6       -0.347880     1.108033     0.007031
6        0.974868     0.744369     0.015248
1        1.791205     1.321336    -0.031906
1       -0.857188     2.085892    -0.049534
1       -0.836127    -2.081683     0.039273
1        1.852723    -1.338906     0.002618


