#P B3LYP/3-21G CIS(Singlets,NStates=15) pop(full) force

FuranDFT

0   1
6        0.908936    -0.741299     0.002227
6       -0.380203    -1.127775     0.028234
8       -1.167153    -0.045281    -0.040817
6       -0.328606     1.136262     0.033424
6        0.924443     0.670484     0.004163
1        1.810769     1.389340     0.003020
1       -0.879032     2.063032     0.020134
1       -0.831595    -2.046141     0.017164
1        1.819916    -1.351398     0.015669


