#P B3LYP/3-21G CIS(Singlets,NStates=15) pop(full) force

FuranDFT

0   1
6        0.926574    -0.725570     0.037783
6       -0.310833    -1.050858    -0.024459
8       -1.118099     0.038513    -0.032963
6       -0.388894     1.127917    -0.026730
6        0.905500     0.671122    -0.011471
1        1.773941     1.370376     0.037567
1       -0.888754     2.078772    -0.046597
1       -0.862229    -2.093394    -0.011194
1        1.762440    -1.325387    -0.022616


