#P B3LYP/3-21G CIS(Singlets,NStates=15) pop(full) force

FuranDFT

0   1
6        0.906946    -0.765733     0.002229
6       -0.309815    -1.100827    -0.010638
8       -1.184065    -0.032097    -0.004452
6       -0.352461     1.059009     0.040034
6        0.984734     0.682890     0.046241
1        1.760921     1.384623    -0.033405
1       -0.820712     2.000993    -0.033865
1       -0.826806    -2.082259    -0.018456
1        1.781664    -1.408137     0.022833


