#P B3LYP/3-21G CIS(Singlets,NStates=15) pop(full) force

FuranDFT

0   1
6        0.925731    -0.744579     0.039015
6       -0.380357    -1.114501     0.031671
8       -1.170762    -0.013737     0.007892
6       -0.301526     1.091852     0.026696
6        0.959101     0.708926    -0.009426
1        1.841970     1.397872    -0.040313
1       -0.855593     2.041767    -0.003163
1       -0.854377    -2.083368    -0.044637
1        1.761327    -1.334228    -0.023680


