#P B3LYP/3-21G CIS(Singlets,NStates=15) pop(full) force

FuranDFT

0   1
6        0.997842    -0.675866     0.013355
6       -0.371735    -1.050374     0.007646
8       -1.135005    -0.045129     0.025984
6       -0.303592     1.098230    -0.029474
6        0.919735     0.678775     0.042332
1        1.829889     1.361004    -0.034436
1       -0.811264     2.011317    -0.047185
1       -0.798597    -2.064515    -0.008154
1        1.780533    -1.369179     0.026492


