#P B3LYP/3-21G CIS(Singlets,NStates=15) pop(full) force

FuranDFT

0   1
6        0.927067    -0.679662     0.048359
6       -0.322824    -1.125715     0.016319
8       -1.192665     0.004856    -0.048048
6       -0.360919     1.073293     0.017985
6        0.960600     0.684295     0.037290
1        1.831241     1.354058     0.044522
1       -0.827317     2.009354    -0.013539
1       -0.807123    -2.037786    -0.022559
1        1.805674    -1.341920    -0.002056


