#P B3LYP/3-21G CIS(Singlets,NStates=15) pop(full) force

FuranDFT

0   1
6        0.925106    -0.703097    -0.011431
6       -0.346368    -1.111568     0.002746
8       -1.170325     0.047117     0.012157
6       -0.320637     1.051779    -0.021179
6        0.926985     0.674630    -0.049576
1        1.764710     1.413778     0.007367
1       -0.790507     2.000818    -0.026181
1       -0.868037    -2.038601     0.029692
1        1.802043    -1.322484    -0.032284


