#P B3LYP/3-21G CIS(Singlets,NStates=15) pop(full) force

FuranDFT

0   1
6        0.978262    -0.705825    -0.009082
6       -0.354144    -1.112340    -0.008307
8       -1.203918     0.014285     0.042050
6       -0.368524     1.122852    -0.038515
6        0.942373     0.703036    -0.041664
1        1.777688     1.372301    -0.047821
1       -0.794196     2.071371    -0.046138
1       -0.795699    -2.048205    -0.004593
1        1.780957    -1.384647     0.026536


