#P B3LYP/3-21G CIS(Singlets,NStates=15) pop(full) force

FuranDFT

0   1
6        0.927166    -0.687706     0.012885
6       -0.386786    -1.122751    -0.035244
8       -1.146026     0.030634     0.041487
6       -0.358111     1.123416     0.031710
6        0.907536     0.674202     0.001240
1        1.784357     1.330512    -0.024162
1       -0.853376     2.062978     0.005566
1       -0.876825    -2.081689     0.010361
1        1.849051    -1.338008     0.010722


