#P B3LYP/3-21G CIS(Singlets,NStates=15) pop(full) force

FuranDFT

0   1
6        0.928903    -0.757678     0.018032
6       -0.317948    -1.065848     0.000080
8       -1.114596    -0.025164     0.044032
6       -0.343181     1.074374     0.033205
6        0.964373     0.758743     0.004525
1        1.822173     1.349028     0.029405
1       -0.867250     2.007710     0.049894
1       -0.864989    -2.093261     0.001211
1        1.778144    -1.320183     0.008635


