#P B3LYP/3-21G CIS(Singlets,NStates=15) pop(full) force

FuranDFT

0   1
6        0.973261    -0.667966    -0.015144
6       -0.313467    -1.111873    -0.040963
8       -1.169240     0.019059     0.003834
6       -0.364161     1.134602    -0.035962
6        0.975967     0.680905     0.024984
1        1.783334     1.324613    -0.038617
1       -0.812828     2.083048    -0.003940
1       -0.864676    -2.021305     0.000039
1        1.847647    -1.411418    -0.035194


