#P B3LYP/3-21G CIS(Singlets,NStates=15) pop(full) force

FuranDFT

0   1
6        0.970799    -0.736209     0.039524
6       -0.366154    -1.094039    -0.048431
8       -1.192328     0.048114     0.017718
6       -0.324964     1.107275     0.028506
6        0.908521     0.673680    -0.045430
1        1.818698     1.346882    -0.030611
1       -0.880281     2.035126     0.004269
1       -0.803198    -2.017616    -0.030951
1        1.828826    -1.387755    -0.006087


