#P B3LYP/3-21G CIS(Singlets,NStates=15) pop(full) force

FuranDFT

0   1
6        0.946034    -0.691476     0.026582
6       -0.349298    -1.113211     0.049412
8       -1.138937    -0.049548    -0.030520
6       -0.387958     1.111491    -0.034921
6        0.987039     0.719665    -0.033984
1        1.816387     1.365508     0.014886
1       -0.869692     2.017785     0.010852
1       -0.795453    -2.073808    -0.047074
1        1.779750    -1.348151     0.036394


