#P B3LYP/3-21G CIS(Singlets,NStates=15) pop(full) force

FuranDFT

0   1
6        0.960854    -0.727439    -0.027229
6       -0.373033    -1.121733     0.011906
8       -1.137353    -0.024528     0.000048
6       -0.389426     1.090886     0.044431
6        0.906140     0.701653    -0.027741
1        1.768393     1.349659     0.011742
1       -0.849036     2.037337    -0.044039
1       -0.852265    -2.012710    -0.043580
1        1.855563    -1.346800    -0.019019


