#P B3LYP/3-21G CIS(Singlets,NStates=15) pop(full) force

FuranDFT

0   1
6        0.963258    -0.738121     0.027720
6       -0.359300    -1.085963    -0.028585
8       -1.159063    -0.003524    -0.011767
6       -0.366492     1.072155     0.023229
6        0.980951     0.735908     0.013318
1        1.854754     1.330122    -0.035403
1       -0.824294     2.006973    -0.043658
1       -0.793146    -2.083464    -0.031613
1        1.769002    -1.362646     0.028794


