#P B3LYP/3-21G CIS(Singlets,NStates=15) pop(full) force

FuranDFT

0   1
6        1.002084    -0.685192     0.041380
6       -0.358347    -1.109187     0.032329
8       -1.168253    -0.014535     0.020609
6       -0.356469     1.119521     0.040324
6        0.936172     0.733450    -0.027649
1        1.800055     1.341784    -0.008977
1       -0.824767     2.060497     0.023249
1       -0.868401    -2.085997    -0.049213
1        1.812640    -1.333230    -0.020123


