#P B3LYP/3-21G CIS(Singlets,NStates=15) pop(full) force

FuranDFT

0   1
6        0.916459    -0.706874    -0.020311
6       -0.361014    -1.093135    -0.045857
8       -1.129430    -0.011269    -0.030273
6       -0.338267     1.096282     0.025821
6        0.962636     0.718530     0.045529
1        1.768767     1.413617    -0.028286
1       -0.861512     2.044019     0.026260
1       -0.816999    -2.028821     0.038663
1        1.816811    -1.377944    -0.042975


