#P B3LYP/3-21G CIS(Singlets,NStates=15) pop(full) force

FuranDFT

0   1
6        1.003012    -0.682857     0.030667
6       -0.302878    -1.076982    -0.038600
8       -1.128074    -0.026194    -0.003281
6       -0.383284     1.099377    -0.003247
6        0.980283     0.680094     0.040767
1        1.828243     1.377676    -0.037305
1       -0.805524     2.035842    -0.044366
1       -0.851808    -2.051212    -0.008930
1        1.802175    -1.351573     0.014233


