#P B3LYP/3-21G CIS(Singlets,NStates=15) pop(full) force

FuranDFT

0   1
6        1.005342    -0.712507    -0.030359
6       -0.345189    -1.125330     0.031792
8       -1.184558    -0.003728    -0.021757
6       -0.378847     1.096368     0.038084
6        0.907896     0.747746     0.033851
1        1.768253     1.418867     0.021516
1       -0.837496     2.019209     0.036030
1       -0.871110    -2.026403     0.049971
1        1.845638    -1.342458     0.028548


