#P B3LYP/3-21G CIS(Singlets,NStates=15) pop(full) force

FuranDFT

0   1
6        0.929547    -0.689877    -0.025582
6       -0.377380    -1.139976    -0.031673
8       -1.167110     0.036777     0.031460
6       -0.352437     1.118591    -0.011535
6        0.922174     0.682693     0.020748
1        1.859422     1.365722    -0.027280
1       -0.835758     2.062364     0.045205
1       -0.817278    -2.046291    -0.032368
1        1.771207    -1.389682     0.019091


