#P B3LYP/3-21G CIS(Singlets,NStates=15) pop(full) force

FuranDFT

0   1
6        0.998562    -0.732196    -0.036436
6       -0.365105    -1.069955    -0.049218
8       -1.128138     0.022932    -0.014658
6       -0.385074     1.058698    -0.028299
6        0.910625     0.749940     0.009836
1        1.790703     1.348906    -0.048334
1       -0.887424     2.056323     0.034230
1       -0.883111    -2.080180    -0.017144
1        1.781028    -1.348077     0.027058


