#P B3LYP/3-21G CIS(Singlets,NStates=15) pop(full) force

FuranDFT

0   1
6        0.943886    -0.765315     0.018494
6       -0.302310    -1.097716    -0.030342
8       -1.154895     0.008947     0.031549
6       -0.317297     1.060845    -0.043242
6        1.000148     0.751532     0.015586
1        1.788390     1.358641     0.026853
1       -0.887941     2.029883     0.002497
1       -0.835035    -2.065114    -0.038071
1        1.792029    -1.350993     0.030925


