#P B3LYP/3-21G CIS(Singlets,NStates=15) pop(full) force

FuranDFT

0   1
6        0.957539    -0.727921    -0.011569
6       -0.376882    -1.133361     0.021270
8       -1.167296    -0.007233     0.017785
6       -0.370082     1.075820     0.000204
6        0.951355     0.731467     0.044746
1        1.849947     1.392970     0.040888
1       -0.858761     2.095197    -0.038091
1       -0.795928    -2.047266    -0.014219
1        1.816910    -1.415693    -0.032820


