#P B3LYP/3-21G CIS(Singlets,NStates=15) pop(full) force

FuranDFT

0   1
6        0.910690    -0.728204    -0.039108
6       -0.312386    -1.093313     0.026407
8       -1.171811     0.045194     0.024489
6       -0.302413     1.073553    -0.016403
6        0.953455     0.681487    -0.030479
1        1.781040     1.415109     0.027528
1       -0.795973     2.086858    -0.018594
1       -0.885161    -2.012304     0.031570
1        1.848089    -1.370458    -0.032004


