#P B3LYP/3-21G CIS(Singlets,NStates=15) pop(full) force

FuranDFT

0   1
6        0.988001    -0.666563    -0.007277
6       -0.318781    -1.054031     0.008621
8       -1.188327     0.039717     0.011334
6       -0.314021     1.082031    -0.009239
6        0.968351     0.703462    -0.018750
1        1.802061     1.343429    -0.025263
1       -0.870885     2.050039    -0.032863
1       -0.859361    -2.002859     0.029371
1        1.837234    -1.373533     0.020882


