#P B3LYP/3-21G CIS(Singlets,NStates=15) pop(full) force

FuranDFT

0   1
6        0.922978    -0.674602    -0.004741
6       -0.391091    -1.045555     0.028729
8       -1.149726     0.023358     0.005313
6       -0.299232     1.093741     0.049194
6        0.924964     0.718566     0.009867
1        1.779979     1.366444    -0.015579
1       -0.792174     2.078670    -0.046420
1       -0.865427    -2.009451    -0.030046
1        1.833753    -1.360236    -0.011705


