#P B3LYP/3-21G CIS(Singlets,NStates=15) pop(full) force

FuranDFT

0   1
6        0.995457    -0.686796     0.006664
6       -0.318485    -1.082907    -0.006129
8       -1.110816    -0.020782    -0.049235
6       -0.384994     1.064574    -0.004541
6        0.917105     0.693627     0.033531
1        1.815814     1.325555     0.028301
1       -0.849011     2.091488    -0.036894
1       -0.793246    -2.024247    -0.039805
1        1.778905    -1.416449    -0.049726


