#P B3LYP/3-21G CIS(Singlets,NStates=15) pop(full) force

FuranDFT

0   1
6        0.969233    -0.764988    -0.016116
6       -0.308380    -1.048560    -0.036996
8       -1.153908     0.013715     0.001083
6       -0.338062     1.058342     0.012479
6        0.990195     0.760215     0.008397
1        1.787934     1.408128     0.001187
1       -0.816173     2.012089     0.030039
1       -0.875213    -2.042334    -0.005026
1        1.856638    -1.382250     0.019950


