#P B3LYP/3-21G CIS(Singlets,NStates=15) pop(full) force

FuranDFT

0   1
6        0.974015    -0.718031     0.022592
6       -0.313842    -1.132614    -0.012096
8       -1.126664    -0.001047    -0.009970
6       -0.345711     1.121285     0.026515
6        0.996517     0.684964    -0.017518
1        1.841925     1.401627     0.001719
1       -0.844530     1.998649     0.041317
1       -0.821615    -2.046746    -0.038563
1        1.829575    -1.338869    -0.005718


