#P B3LYP/3-21G CIS(Singlets,NStates=15) pop(full) force

FuranDFT

0   1
6        0.981038    -0.719956    -0.038484
6       -0.355373    -1.089199     0.030660
8       -1.178013     0.036646     0.002547
6       -0.394732     1.079171     0.029436
6        1.004896     0.755981     0.016696
1        1.797302     1.396519    -0.004344
1       -0.861854     2.080124     0.035523
1       -0.828656    -2.092030    -0.037421
1        1.789573    -1.376284     0.040996


