#P B3LYP/3-21G CIS(Singlets,NStates=15) pop(full) force

FuranDFT

0   1
6        0.921022    -0.750823     0.042264
6       -0.319590    -1.132807    -0.042527
8       -1.108567    -0.018258    -0.001649
6       -0.299824     1.089064    -0.038916
6        0.923704     0.733939    -0.015244
1        1.849942     1.366036    -0.034144
1       -0.880686     2.052829    -0.025816
1       -0.862686    -2.069770    -0.041018
1        1.827259    -1.341338    -0.043949


