#P B3LYP/3-21G CIS(Singlets,NStates=15) pop(full) force

FuranDFT

0   1
6        0.948024    -0.762256    -0.008425
6       -0.298484    -1.122318    -0.020363
8       -1.184238     0.038666    -0.018436
6       -0.306770     1.057828     0.006984
6        0.909545     0.717256     0.005202
1        1.814305     1.350142     0.026272
1       -0.797179     2.003436     0.034060
1       -0.841257    -2.021536     0.022662
1        1.821206    -1.413887    -0.007877


