#P B3LYP/3-21G CIS(Singlets,NStates=15) pop(full) force

FuranDFT

0   1
6        0.964074    -0.690201     0.046651
6       -0.380080    -1.043094     0.019540
8       -1.188442    -0.022654     0.009263
6       -0.356388     1.065400     0.043385
6        0.962608     0.702308     0.042123
1        1.838300     1.384862     0.048333
1       -0.815771     2.068490     0.021372
1       -0.805915    -1.999270     0.030511
1        1.791271    -1.397012    -0.012479


