#P B3LYP/3-21G CIS(Singlets,NStates=15) pop(full) force

FuranDFT

0   1
6        0.941081    -0.710051    -0.014732
6       -0.348645    -1.117920     0.017656
8       -1.147489    -0.017684     0.021669
6       -0.307104     1.054230     0.048224
6        0.981736     0.741021     0.019855
1        1.828312     1.330856     0.036805
1       -0.882262     1.998393     0.018169
1       -0.814974    -2.020380     0.034209
1        1.792530    -1.375465    -0.013382


