#P B3LYP/3-21G CIS(Singlets,NStates=15) pop(full) force

FuranDFT

0   1
6        0.948337    -0.732153    -0.009651
6       -0.370382    -1.140231    -0.008986
8       -1.132037     0.001318    -0.027477
6       -0.323307     1.119870    -0.031727
6        0.918939     0.706384    -0.002893
1        1.785880     1.322327    -0.013450
1       -0.869935     2.051088    -0.019024
1       -0.864904    -2.068469     0.034737
1        1.789228    -1.409724     0.030576


