#P B3LYP/3-21G CIS(Singlets,NStates=15) pop(full) force

FuranDFT

0   1
6        1.002809    -0.694310     0.004349
6       -0.364552    -1.086932    -0.041773
8       -1.133550     0.007953    -0.010640
6       -0.357061     1.088564     0.029703
6        0.959577     0.748228     0.030637
1        1.770993     1.353893     0.009179
1       -0.836333     2.004427     0.013983
1       -0.804269    -2.085446    -0.011493
1        1.794385    -1.391061    -0.018532


