#P B3LYP/3-21G CIS(Singlets,NStates=15) pop(full) force

FuranDFT

0   1
6        0.995979    -0.742408     0.038878
6       -0.392842    -1.090915     0.011322
8       -1.107536     0.026430    -0.037680
6       -0.380215     1.136487    -0.004864
6        0.911828     0.707941    -0.020732
1        1.770041     1.337015     0.047159
1       -0.799948     2.014381     0.016468
1       -0.822489    -2.081883    -0.022058
1        1.762460    -1.346494    -0.004725


