#P B3LYP/3-21G CIS(Singlets,NStates=15) pop(full) force

FuranDFT

0   1
6        0.923262    -0.730666     0.002384
6       -0.309824    -1.117680     0.033144
8       -1.160702     0.015787    -0.019313
6       -0.326792     1.138374     0.030407
6        0.910840     0.731680    -0.019081
1        1.770703     1.339596     0.039209
1       -0.816023     1.997503    -0.015466
1       -0.890059    -2.058909    -0.006823
1        1.784266    -1.371894    -0.011794


