#P B3LYP/3-21G CIS(Singlets,NStates=15) pop(full) force

FuranDFT

0   1
6        0.922713    -0.706378     0.038500
6       -0.346620    -1.075226     0.001102
8       -1.114359     0.013635    -0.013448
6       -0.360582     1.050530    -0.006622
6        0.921190     0.701503     0.030000
1        1.834683     1.411398    -0.014351
1       -0.873811     2.050817     0.027306
1       -0.876105    -2.071633     0.037156
1        1.765595    -1.336826     0.001434


