#P B3LYP/3-21G CIS(Singlets,NStates=15) pop(full) force

FuranDFT

0   1
6        0.983060    -0.760172    -0.016757
6       -0.301235    -1.059461     0.009467
8       -1.162480    -0.002903     0.003126
6       -0.338575     1.085370    -0.027545
6        0.970792     0.691426    -0.004392
1        1.856487     1.357145    -0.028321
1       -0.863753     2.084363    -0.001022
1       -0.812747    -2.090648    -0.022528
1        1.792139    -1.406653     0.008452


