#P B3LYP/3-21G CIS(Singlets,NStates=15) pop(full) force

FuranDFT

0   1
6        0.906738    -0.748835     0.037794
6       -0.374939    -1.074572    -0.038599
8       -1.189829     0.015606    -0.020926
6       -0.314851     1.090462    -0.027920
6        0.943793     0.702008     0.018207
1        1.792667     1.327176    -0.006726
1       -0.889415     2.075803     0.019114
1       -0.797134    -2.021796     0.006659
1        1.859797    -1.386543     0.032469


