#P B3LYP/3-21G CIS(Singlets,NStates=15) pop(full) force

FuranDFT

0   1
6        0.913402    -0.723638    -0.013082
6       -0.297415    -1.134969    -0.044244
8       -1.195188    -0.045476     0.035025
6       -0.352306     1.129825    -0.002296
6        0.963576     0.698528     0.030982
1        1.785390     1.369471    -0.009532
1       -0.853275     2.095234    -0.002703
1       -0.878361    -2.022471    -0.024851
1        1.765249    -1.414006    -0.042453


