#P B3LYP/3-21G CIS(Singlets,NStates=15) pop(full) force

FuranDFT

0   1
6        0.971760    -0.669831    -0.021108
6       -0.350397    -1.135435    -0.009354
8       -1.140541    -0.009427     0.019871
6       -0.320431     1.083284     0.033453
6        0.989737     0.673987     0.038045
1        1.779887     1.406950     0.022498
1       -0.844425     2.055855     0.034487
1       -0.861553    -2.090280     0.049289
1        1.811304    -1.354090     0.030541


