#P B3LYP/3-21G CIS(Singlets,NStates=15) pop(full) force

FuranDFT

0   1
6        0.918693    -0.703043     0.029244
6       -0.361253    -1.058048     0.010042
8       -1.178564    -0.047378     0.031187
6       -0.308938     1.133591    -0.029514
6        0.911044     0.673604    -0.045935
1        1.828790     1.358025     0.042448
1       -0.791642     2.026356    -0.046481
1       -0.883466    -2.076559    -0.003117
1        1.797901    -1.414131     0.034266


