#P B3LYP/3-21G CIS(Singlets,NStates=15) pop(full) force

FuranDFT

0   1
6        0.968179    -0.672040    -0.039123
6       -0.368414    -1.056688     0.026487
8       -1.178403     0.016771    -0.023202
6       -0.379545     1.073953    -0.014847
6        0.966778     0.731209    -0.042425
1        1.797873     1.369697    -0.029087
1       -0.811606     2.076450    -0.040652
1       -0.846182    -2.059772     0.045720
1        1.819733    -1.416881     0.008146


