#P B3LYP/3-21G CIS(Singlets,NStates=15) pop(full) force

FuranDFT

0   1
6        0.997011    -0.748681    -0.013348
6       -0.324597    -1.056812    -0.002437
8       -1.199696    -0.020730    -0.020254
6       -0.384589     1.142392     0.017330
6        0.952307     0.739674     0.023107
1        1.843336     1.327804     0.033538
1       -0.826249     2.068945    -0.028176
1       -0.817267    -2.044503    -0.046824
1        1.776756    -1.415623     0.031084


