#P B3LYP/3-21G CIS(Singlets,NStates=15) pop(full) force

FuranDFT

0   1
6        0.988626    -0.764534     0.031843
6       -0.301978    -1.140530    -0.048312
8       -1.190098     0.002450     0.044603
6       -0.336119     1.129439    -0.005846
6        0.916533     0.724113     0.036257
1        1.857624     1.369815    -0.014008
1       -0.813310     2.085461     0.007870
1       -0.791352    -2.005232    -0.038153
1        1.857672    -1.390348     0.012749


