#P B3LYP/3-21G CIS(Singlets,NStates=15) pop(full) force

FuranDFT

0   1
6        0.914771    -0.704061    -0.002510
6       -0.319413    -1.072232     0.002775
8       -1.162329    -0.025031     0.018094
6       -0.352258     1.115789     0.018178
6        0.960111     0.714346     0.002755
1        1.775637     1.335691    -0.032492
1       -0.800824     2.081787     0.047104
1       -0.835319    -1.999924    -0.008835
1        1.807528    -1.346964     0.003429


