#P B3LYP/3-21G CIS(Singlets,NStates=15) pop(full) force

FuranDFT

0   1
6        0.958295    -0.746324     0.012435
6       -0.356229    -1.086547     0.034076
8       -1.147013     0.022711     0.026294
6       -0.370630     1.130248     0.013346
6        0.965289     0.728700     0.017948
1        1.831057     1.351376    -0.039805
1       -0.859475     2.023547     0.039808
1       -0.823568    -2.039143     0.039444
1        1.763361    -1.336423     0.047840


