#P B3LYP/3-21G CIS(Singlets,NStates=15) pop(full) force

FuranDFT

0   1
6        0.953447    -0.752695    -0.029112
6       -0.321426    -1.093288    -0.032388
8       -1.132316    -0.002085    -0.047105
6       -0.389969     1.111590     0.041529
6        0.937335     0.696018     0.014973
1        1.854728     1.330467    -0.033948
1       -0.813089     2.054046    -0.015605
1       -0.836778    -2.036069     0.021717
1        1.808981    -1.335993     0.024301


