#P B3LYP/3-21G CIS(Singlets,NStates=15) pop(full) force

FuranDFT

0   1
6        0.965454    -0.691642     0.018978
6       -0.371797    -1.126569     0.019270
8       -1.130230     0.036691     0.006891
6       -0.297972     1.106729     0.003092
6        0.941641     0.761768    -0.018118
1        1.766977     1.373778    -0.040216
1       -0.794934     2.009617    -0.025516
1       -0.812912    -2.010075     0.044408
1        1.801185    -1.400221     0.045079


