#P B3LYP/3-21G CIS(Singlets,NStates=15) pop(full) force

FuranDFT

0   1
6        0.998891    -0.723700     0.043126
6       -0.386830    -1.118215    -0.013112
8       -1.123672    -0.025527     0.046263
6       -0.364473     1.115298    -0.023375
6        0.944674     0.749585     0.041542
1        1.819876     1.329811    -0.006885
1       -0.842245     2.044927     0.007042
1       -0.821475    -2.087052    -0.013458
1        1.854206    -1.321193     0.035112


