#P B3LYP/3-21G CIS(Singlets,NStates=15) pop(full) force

FuranDFT

0   1
6        0.931595    -0.689233    -0.031018
6       -0.324992    -1.134723     0.005082
8       -1.122886     0.019279     0.004399
6       -0.376089     1.099155     0.049733
6        0.997797     0.676579    -0.043048
1        1.801421     1.328229    -0.035888
1       -0.796656     2.033046    -0.004740
1       -0.795220    -2.010735     0.032311
1        1.847793    -1.364270     0.007826


