#P B3LYP/3-21G CIS(Singlets,NStates=15) pop(full) force

FuranDFT

0   1
6        0.999739    -0.720128     0.038020
6       -0.367654    -1.105990     0.010992
8       -1.183733     0.009779    -0.031822
6       -0.323990     1.043120     0.038091
6        0.922529     0.763253     0.030652
1        1.824064     1.357263     0.044451
1       -0.791862     2.014714    -0.012577
1       -0.815044    -2.005076     0.036467
1        1.818163    -1.336502     0.036381


