#P B3LYP/3-21G CIS(Singlets,NStates=15) pop(full) force

FuranDFT

0   1
6        0.954661    -0.688042    -0.007884
6       -0.374578    -1.078835    -0.017255
8       -1.160414    -0.043382    -0.021097
6       -0.322080     1.122755     0.018393
6        0.950935     0.709821    -0.024550
1        1.818028     1.367301    -0.004215
1       -0.810170     2.012950     0.037361
1       -0.851789    -2.083855     0.006747
1        1.778971    -1.389932     0.031342


