#P B3LYP/3-21G CIS(Singlets,NStates=15) pop(full) force

FuranDFT

0   1
6        0.966835    -0.714424    -0.040529
6       -0.300282    -1.054842    -0.015614
8       -1.194296    -0.025544     0.049556
6       -0.313342     1.091231     0.036134
6        0.969176     0.678037     0.025901
1        1.828476     1.371994    -0.035872
1       -0.825216     2.016575    -0.015039
1       -0.806443    -2.066431     0.020383
1        1.826736    -1.411564     0.031511


