#P B3LYP/3-21G CIS(Singlets,NStates=15) pop(full) force

FuranDFT

0   1
6        0.954969    -0.742605    -0.005942
6       -0.391483    -1.084273    -0.021952
8       -1.154264     0.021184     0.047076
6       -0.364013     1.111690    -0.000629
6        0.922241     0.756863    -0.022733
1        1.763988     1.366614    -0.031031
1       -0.851715     2.051497    -0.019389
1       -0.808683    -2.067763    -0.032601
1        1.840769    -1.414950    -0.039133


