#P B3LYP/3-21G CIS(Singlets,NStates=15) pop(full) force

FuranDFT

0   1
6        0.919785    -0.681740     0.027670
6       -0.353944    -1.108197     0.009421
8       -1.206586     0.012572    -0.013491
6       -0.334730     1.053087    -0.038353
6        0.912232     0.705125    -0.030687
1        1.805794     1.408521     0.009057
1       -0.833566     2.003664     0.038752
1       -0.875752    -2.074041    -0.047819
1        1.838262    -1.384994     0.004614


