#P B3LYP/3-21G CIS(Singlets,NStates=15) pop(full) force

FuranDFT

0   1
6        0.935861    -0.721664     0.022049
6       -0.356230    -1.050773    -0.002872
8       -1.200259     0.045884    -0.017969
6       -0.298160     1.068634     0.049973
6        0.951788     0.742569     0.026997
1        1.793254     1.338631     0.042856
1       -0.863602     2.050815    -0.020073
1       -0.803191    -2.021749     0.032533
1        1.812372    -1.371869    -0.009552


